<?xml version="1.0" encoding="UTF-8"?>

<!-- generated on 2024-06-05 21:50:06 by Eclipse SUMO netconvert Version 1.12.0
<configuration xmlns:xsi="http://www.w3.org/2001/XMLSchema-instance" xsi:noNamespaceSchemaLocation="http://sumo.dlr.de/xsd/netconvertConfiguration.xsd">

    <input>
        <node-files value="/home/l01158790/Downloads/worlds/city_traffic_2024_02_net/sumo.nod.xml"/>
        <edge-files value="/home/l01158790/Downloads/worlds/city_traffic_2024_02_net/sumo.edg.xml"/>
    </input>

    <output>
        <output-file value="/home/l01158790/Downloads/worlds/city_traffic_2024_02_net/sumo.net.xml"/>
    </output>

    <report>
        <aggregate-warnings value="5"/>
    </report>

</configuration>
-->

<net version="1.9" junctionCornerDetail="5" limitTurnSpeed="5.50" xmlns:xsi="http://www.w3.org/2001/XMLSchema-instance" xsi:noNamespaceSchemaLocation="http://sumo.dlr.de/xsd/net_file.xsd">

    <location netOffset="230.00,191.00" convBoundary="0.00,0.00,395.00,422.01" origBoundary="-230.00,-191.00,165.00,231.01" projParameter="!"/>

    <edge id=":25_0" function="internal">
        <lane id=":25_0_0" index="0" speed="5.06" length="4.33" width="5.38" shape="266.94,156.75 266.77,155.57 266.27,154.73 265.43,154.23 264.25,154.06"/>
    </edge>
    <edge id=":25_1" function="internal">
        <lane id=":25_1_0" index="0" speed="13.89" length="21.50" width="5.38" shape="266.94,156.75 267.36,135.25"/>
        <lane id=":25_1_1" index="1" speed="13.89" length="21.50" width="5.38" shape="272.31,156.75 272.74,135.25"/>
    </edge>
    <edge id=":25_3" function="internal">
        <lane id=":25_3_0" index="0" speed="9.60" length="20.94" width="5.38" shape="272.31,156.75 273.51,151.82 276.62,147.28 280.94,144.01 285.75,142.88"/>
    </edge>
    <edge id=":25_4" function="internal">
        <lane id=":25_4_0" index="0" speed="4.73" length="7.85" width="5.38" shape="272.31,156.75 273.66,154.73 275.00,154.06 276.34,154.73 277.69,156.75"/>
    </edge>
    <edge id=":25_5" function="internal">
        <lane id=":25_5_0" index="0" speed="5.15" length="4.73" width="5.38" shape="285.75,153.64 284.58,153.79 283.74,154.35 283.23,155.34 283.06,156.75"/>
    </edge>
    <edge id=":25_6" function="internal">
        <lane id=":25_6_0" index="0" speed="13.89" length="21.50" width="5.38" shape="285.75,153.64 264.25,154.06"/>
        <lane id=":25_6_1" index="1" speed="13.89" length="21.50" width="5.38" shape="285.75,148.26 264.25,148.69"/>
    </edge>
    <edge id=":25_8" function="internal">
        <lane id=":25_8_0" index="0" speed="10.04" length="6.66" width="5.38" shape="285.75,148.26 280.29,147.22 279.36,146.64"/>
    </edge>
    <edge id=":25_9" function="internal">
        <lane id=":25_9_0" index="0" speed="4.73" length="2.97" width="5.38" shape="285.75,148.26 283.73,146.92 283.49,146.43"/>
    </edge>
    <edge id=":25_20" function="internal">
        <lane id=":25_20_0" index="0" speed="10.04" length="13.90" width="5.38" shape="279.36,146.64 276.30,144.70 273.78,140.71 272.74,135.25"/>
    </edge>
    <edge id=":25_21" function="internal">
        <lane id=":25_21_0" index="0" speed="4.73" length="4.89" width="5.38" shape="283.49,146.43 283.06,145.57 283.73,144.22 285.75,142.88"/>
    </edge>
    <edge id=":25_10" function="internal">
        <lane id=":25_10_0" index="0" speed="4.85" length="3.55" width="5.38" shape="283.50,135.25 283.68,136.19 284.12,136.88 284.81,137.32 285.75,137.50"/>
    </edge>
    <edge id=":25_11" function="internal">
        <lane id=":25_11_0" index="0" speed="13.89" length="21.50" width="5.38" shape="283.50,135.25 283.06,156.75"/>
        <lane id=":25_11_1" index="1" speed="13.89" length="21.50" width="5.38" shape="278.12,135.25 277.69,156.75"/>
    </edge>
    <edge id=":25_13" function="internal">
        <lane id=":25_13_0" index="0" speed="9.60" length="20.94" width="5.38" shape="278.12,135.25 276.99,140.06 273.72,144.38 269.18,147.49 264.25,148.69"/>
    </edge>
    <edge id=":25_14" function="internal">
        <lane id=":25_14_0" index="0" speed="4.73" length="7.86" width="5.38" shape="278.12,135.25 276.78,137.27 275.43,137.94 274.09,137.27 272.74,135.25"/>
    </edge>
    <edge id=":25_15" function="internal">
        <lane id=":25_15_0" index="0" speed="5.15" length="4.73" width="5.38" shape="264.25,137.94 265.66,137.77 266.65,137.27 267.21,136.43 267.36,135.25"/>
    </edge>
    <edge id=":25_16" function="internal">
        <lane id=":25_16_0" index="0" speed="13.89" length="21.50" width="5.38" shape="264.25,137.94 285.75,137.50"/>
        <lane id=":25_16_1" index="1" speed="13.89" length="21.50" width="5.38" shape="264.25,143.31 285.75,142.88"/>
    </edge>
    <edge id=":25_18" function="internal">
        <lane id=":25_18_0" index="0" speed="9.92" length="7.40" width="5.38" shape="264.25,143.31 270.13,144.15 271.38,144.90"/>
    </edge>
    <edge id=":25_19" function="internal">
        <lane id=":25_19_0" index="0" speed="4.73" length="2.96" width="5.38" shape="264.25,143.31 266.27,144.66 266.51,145.14"/>
    </edge>
    <edge id=":25_22" function="internal">
        <lane id=":25_22_0" index="0" speed="9.92" length="14.28" width="5.38" shape="271.38,144.90 274.33,146.67 276.85,150.87 277.69,156.75"/>
    </edge>
    <edge id=":25_23" function="internal">
        <lane id=":25_23_0" index="0" speed="4.73" length="4.89" width="5.38" shape="266.51,145.14 266.94,146.00 266.27,147.34 264.25,148.69"/>
    </edge>
    <edge id=":26_0" function="internal">
        <lane id=":26_0_0" index="0" speed="4.96" length="3.94" width="5.38" shape="176.94,246.75 176.77,245.82 176.27,245.13 175.43,244.69 174.25,244.50"/>
    </edge>
    <edge id=":26_1" function="internal">
        <lane id=":26_1_0" index="0" speed="13.89" length="21.50" width="5.38" shape="176.94,246.75 176.94,225.25"/>
        <lane id=":26_1_1" index="1" speed="13.89" length="21.50" width="5.38" shape="182.31,246.75 182.31,225.25"/>
    </edge>
    <edge id=":26_3" function="internal">
        <lane id=":26_3_0" index="0" speed="9.68" length="7.44" width="5.38" shape="182.31,246.75 183.52,241.98 185.00,239.94"/>
    </edge>
    <edge id=":26_4" function="internal">
        <lane id=":26_4_0" index="0" speed="4.73" length="3.00" width="5.38" shape="182.31,246.75 183.66,244.73 184.17,244.48"/>
    </edge>
    <edge id=":26_20" function="internal">
        <lane id=":26_20_0" index="0" speed="9.68" length="13.08" width="5.38" shape="185.00,239.94 186.66,237.66 190.98,234.52 195.75,233.31"/>
    </edge>
    <edge id=":26_21" function="internal">
        <lane id=":26_21_0" index="0" speed="4.73" length="4.85" width="5.38" shape="184.17,244.48 185.00,244.06 186.35,244.73 187.69,246.75"/>
    </edge>
    <edge id=":26_5" function="internal">
        <lane id=":26_5_0" index="0" speed="5.06" length="4.33" width="5.38" shape="195.75,244.06 194.58,244.23 193.74,244.73 193.23,245.57 193.06,246.75"/>
    </edge>
    <edge id=":26_6" function="internal">
        <lane id=":26_6_0" index="0" speed="13.89" length="21.50" width="5.38" shape="195.75,244.06 174.25,244.50"/>
        <lane id=":26_6_1" index="1" speed="13.89" length="21.50" width="5.38" shape="195.75,238.69 174.25,239.12"/>
    </edge>
    <edge id=":26_8" function="internal">
        <lane id=":26_8_0" index="0" speed="9.68" length="20.52" width="5.38" shape="195.75,238.69 190.98,237.48 186.66,234.34 183.52,230.02 182.31,225.25"/>
    </edge>
    <edge id=":26_9" function="internal">
        <lane id=":26_9_0" index="0" speed="4.73" length="7.85" width="5.38" shape="195.75,238.69 193.74,237.34 193.06,236.00 193.74,234.66 195.75,233.31"/>
    </edge>
    <edge id=":26_10" function="internal">
        <lane id=":26_10_0" index="0" speed="5.06" length="4.33" width="5.38" shape="193.06,225.25 193.23,226.43 193.74,227.27 194.58,227.77 195.75,227.94"/>
    </edge>
    <edge id=":26_11" function="internal">
        <lane id=":26_11_0" index="0" speed="13.89" length="21.50" width="5.38" shape="193.06,225.25 193.06,246.75"/>
        <lane id=":26_11_1" index="1" speed="13.89" length="21.50" width="5.38" shape="187.69,225.25 187.69,246.75"/>
    </edge>
    <edge id=":26_13" function="internal">
        <lane id=":26_13_0" index="0" speed="9.60" length="7.71" width="5.38" shape="187.69,225.25 186.49,230.18 185.00,232.35"/>
    </edge>
    <edge id=":26_14" function="internal">
        <lane id=":26_14_0" index="0" speed="4.73" length="3.00" width="5.38" shape="187.69,225.25 186.35,227.27 185.83,227.52"/>
    </edge>
    <edge id=":26_22" function="internal">
        <lane id=":26_22_0" index="0" speed="9.60" length="13.23" width="5.38" shape="185.00,232.35 183.38,234.72 179.06,237.99 174.25,239.12"/>
    </edge>
    <edge id=":26_23" function="internal">
        <lane id=":26_23_0" index="0" speed="4.73" length="4.85" width="5.38" shape="185.83,227.52 185.00,227.94 183.66,227.27 182.31,225.25"/>
    </edge>
    <edge id=":26_15" function="internal">
        <lane id=":26_15_0" index="0" speed="5.15" length="4.73" width="5.38" shape="174.25,228.36 175.43,228.21 176.27,227.65 176.77,226.66 176.94,225.25"/>
    </edge>
    <edge id=":26_16" function="internal">
        <lane id=":26_16_0" index="0" speed="13.89" length="21.50" width="5.38" shape="174.25,228.36 195.75,227.94"/>
        <lane id=":26_16_1" index="1" speed="13.89" length="21.50" width="5.38" shape="174.25,233.74 195.75,233.31"/>
    </edge>
    <edge id=":26_18" function="internal">
        <lane id=":26_18_0" index="0" speed="9.76" length="20.11" width="5.38" shape="174.25,233.74 178.98,235.03 183.31,238.04 186.46,242.15 187.69,246.75"/>
    </edge>
    <edge id=":26_19" function="internal">
        <lane id=":26_19_0" index="0" speed="4.73" length="7.86" width="5.38" shape="174.25,233.74 176.27,235.08 176.94,236.43 176.27,237.78 174.25,239.12"/>
    </edge>
    <edge id=":27_0" function="internal">
        <lane id=":27_0_0" index="0" speed="5.06" length="4.33" width="5.38" shape="326.94,294.75 326.77,293.57 326.27,292.73 325.43,292.23 324.25,292.06"/>
    </edge>
    <edge id=":27_1" function="internal">
        <lane id=":27_1_0" index="0" speed="13.89" length="21.50" width="5.38" shape="326.94,294.75 326.94,273.25"/>
        <lane id=":27_1_1" index="1" speed="13.89" length="21.50" width="5.38" shape="332.31,294.75 332.31,273.25"/>
    </edge>
    <edge id=":27_3" function="internal">
        <lane id=":27_3_0" index="0" speed="9.76" length="7.16" width="5.38" shape="332.31,294.75 333.54,290.15 335.00,288.25"/>
    </edge>
    <edge id=":27_4" function="internal">
        <lane id=":27_4_0" index="0" speed="4.73" length="3.00" width="5.38" shape="332.31,294.75 333.66,292.73 334.17,292.48"/>
    </edge>
    <edge id=":27_20" function="internal">
        <lane id=":27_20_0" index="0" speed="9.76" length="12.96" width="5.38" shape="335.00,288.25 336.70,286.04 341.02,283.03 345.75,281.74"/>
    </edge>
    <edge id=":27_21" function="internal">
        <lane id=":27_21_0" index="0" speed="4.73" length="4.85" width="5.38" shape="334.17,292.48 335.00,292.06 336.34,292.73 337.69,294.75"/>
    </edge>
    <edge id=":27_5" function="internal">
        <lane id=":27_5_0" index="0" speed="4.96" length="3.94" width="5.38" shape="345.75,292.50 344.58,292.69 343.74,293.13 343.23,293.82 343.06,294.75"/>
    </edge>
    <edge id=":27_6" function="internal">
        <lane id=":27_6_0" index="0" speed="13.89" length="21.50" width="5.38" shape="345.75,292.50 324.25,292.06"/>
        <lane id=":27_6_1" index="1" speed="13.89" length="21.50" width="5.38" shape="345.75,287.12 324.25,286.69"/>
    </edge>
    <edge id=":27_8" function="internal">
        <lane id=":27_8_0" index="0" speed="9.60" length="20.94" width="5.38" shape="345.75,287.12 340.94,285.99 336.62,282.72 333.51,278.18 332.31,273.25"/>
    </edge>
    <edge id=":27_9" function="internal">
        <lane id=":27_9_0" index="0" speed="4.73" length="7.86" width="5.38" shape="345.75,287.12 343.73,285.78 343.06,284.43 343.73,283.08 345.75,281.74"/>
    </edge>
    <edge id=":27_10" function="internal">
        <lane id=":27_10_0" index="0" speed="5.15" length="4.72" width="5.38" shape="343.06,273.25 343.23,274.66 343.74,275.65 344.58,276.21 345.75,276.36"/>
    </edge>
    <edge id=":27_11" function="internal">
        <lane id=":27_11_0" index="0" speed="13.89" length="21.50" width="5.38" shape="343.06,273.25 343.06,294.75"/>
        <lane id=":27_11_1" index="1" speed="13.89" length="21.50" width="5.38" shape="337.69,273.25 337.69,294.75"/>
    </edge>
    <edge id=":27_13" function="internal">
        <lane id=":27_13_0" index="0" speed="9.68" length="7.44" width="5.38" shape="337.69,273.25 336.48,278.02 335.00,280.06"/>
    </edge>
    <edge id=":27_14" function="internal">
        <lane id=":27_14_0" index="0" speed="4.73" length="3.00" width="5.38" shape="337.69,273.25 336.35,275.27 335.83,275.52"/>
    </edge>
    <edge id=":27_22" function="internal">
        <lane id=":27_22_0" index="0" speed="9.68" length="13.08" width="5.38" shape="335.00,280.06 333.35,282.34 329.02,285.48 324.25,286.69"/>
    </edge>
    <edge id=":27_23" function="internal">
        <lane id=":27_23_0" index="0" speed="4.73" length="4.85" width="5.38" shape="335.83,275.52 335.00,275.94 333.66,275.27 332.31,273.25"/>
    </edge>
    <edge id=":27_15" function="internal">
        <lane id=":27_15_0" index="0" speed="5.06" length="4.33" width="5.38" shape="324.25,275.94 325.43,275.77 326.27,275.27 326.77,274.43 326.94,273.25"/>
    </edge>
    <edge id=":27_16" function="internal">
        <lane id=":27_16_0" index="0" speed="13.89" length="21.50" width="5.38" shape="324.25,275.94 345.75,276.36"/>
        <lane id=":27_16_1" index="1" speed="13.89" length="21.50" width="5.38" shape="324.25,281.31 345.75,281.74"/>
    </edge>
    <edge id=":27_18" function="internal">
        <lane id=":27_18_0" index="0" speed="9.68" length="20.52" width="5.38" shape="324.25,281.31 329.02,282.52 333.35,285.66 336.48,289.98 337.69,294.75"/>
    </edge>
    <edge id=":27_19" function="internal">
        <lane id=":27_19_0" index="0" speed="4.73" length="7.85" width="5.38" shape="324.25,281.31 326.27,282.66 326.94,284.00 326.27,285.34 324.25,286.69"/>
    </edge>
    <edge id=":28_0" function="internal">
        <lane id=":28_0_0" index="0" speed="13.89" length="0.13" width="5.38" shape="306.64,292.06 306.76,292.06"/>
        <lane id=":28_0_1" index="1" speed="13.89" length="0.13" width="5.38" shape="306.64,286.69 306.50,286.69"/>
    </edge>
    <edge id=":28_2" function="internal">
        <lane id=":28_2_0" index="0" speed="13.89" length="0.54" width="5.38" shape="305.97,275.95 306.64,275.94"/>
        <lane id=":28_2_1" index="1" speed="13.89" length="0.54" width="5.38" shape="306.23,281.32 306.64,281.31"/>
    </edge>
    <edge id=":29_0" function="internal">
        <lane id=":29_0_0" index="0" speed="13.89" length="0.10" width="5.38" shape="274.05,324.89 274.05,324.90"/>
        <lane id=":29_0_1" index="1" speed="13.89" length="0.10" width="5.38" shape="268.69,324.63 268.69,324.63"/>
    </edge>
    <edge id=":29_2" function="internal">
        <lane id=":29_2_0" index="0" speed="13.89" length="0.10" width="5.38" shape="257.95,324.10 257.95,324.10"/>
        <lane id=":29_2_1" index="1" speed="13.89" length="0.10" width="5.38" shape="263.32,324.37 263.32,324.37"/>
    </edge>
    <edge id=":30_0" function="internal">
        <lane id=":30_0_0" index="0" speed="13.89" length="1.58" width="5.38" shape="226.42,373.03 225.88,373.05 225.50,373.06 225.13,373.05 224.58,373.03"/>
        <lane id=":30_0_1" index="1" speed="13.89" length="1.58" width="5.38" shape="226.16,367.66 225.77,367.68 225.50,367.68 225.23,367.68 224.84,367.66"/>
    </edge>
    <edge id=":30_2" function="internal">
        <lane id=":30_2_0" index="0" speed="13.89" length="0.53" width="5.38" shape="225.37,356.92 225.45,356.92 225.50,356.93 225.55,356.92 225.63,356.92"/>
        <lane id=":30_2_1" index="1" speed="13.89" length="0.53" width="5.38" shape="225.11,362.29 225.34,362.30 225.50,362.30 225.66,362.30 225.90,362.29"/>
    </edge>
    <edge id=":31_0" function="internal">
        <lane id=":31_0_0" index="0" speed="13.89" length="0.54" width="5.38" shape="176.96,325.03 176.94,324.36"/>
        <lane id=":31_0_1" index="1" speed="13.89" length="0.54" width="5.38" shape="182.32,324.77 182.31,324.36"/>
    </edge>
    <edge id=":31_2" function="internal">
        <lane id=":31_2_0" index="0" speed="13.89" length="0.13" width="5.38" shape="193.06,324.36 193.06,324.24"/>
        <lane id=":31_2_1" index="1" speed="13.89" length="0.13" width="5.38" shape="187.69,324.36 187.69,324.50"/>
    </edge>
    <edge id=":32_0" function="internal">
        <lane id=":32_0_0" index="0" speed="13.89" length="0.54" width="5.38" shape="295.03,430.05 294.37,430.06"/>
        <lane id=":32_0_1" index="1" speed="13.89" length="0.54" width="5.38" shape="294.77,424.68 294.37,424.69"/>
    </edge>
    <edge id=":32_2" function="internal">
        <lane id=":32_2_0" index="0" speed="13.89" length="0.13" width="5.38" shape="294.36,413.94 294.24,413.94"/>
        <lane id=":32_2_1" index="1" speed="13.89" length="0.13" width="5.38" shape="294.37,419.31 294.51,419.31"/>
    </edge>
    <edge id=":33_0" function="internal">
        <lane id=":33_0_0" index="0" speed="13.89" length="0.54" width="5.38" shape="343.06,381.36 343.05,382.03"/>
        <lane id=":33_0_1" index="1" speed="13.89" length="0.54" width="5.38" shape="337.69,381.36 337.68,381.77"/>
    </edge>
    <edge id=":33_2" function="internal">
        <lane id=":33_2_0" index="0" speed="13.89" length="0.13" width="5.38" shape="326.94,381.24 326.94,381.36"/>
        <lane id=":33_2_1" index="1" speed="13.89" length="0.13" width="5.38" shape="332.31,381.50 332.31,381.36"/>
    </edge>
    <edge id=":34_0" function="internal">
        <lane id=":34_0_0" index="0" speed="13.89" length="0.54" width="5.38" shape="403.06,243.36 403.05,244.03"/>
        <lane id=":34_0_1" index="1" speed="13.89" length="0.54" width="5.38" shape="397.69,243.36 397.68,243.77"/>
    </edge>
    <edge id=":34_2" function="internal">
        <lane id=":34_2_0" index="0" speed="13.89" length="0.13" width="5.38" shape="386.94,243.24 386.94,243.36"/>
        <lane id=":34_2_1" index="1" speed="13.89" length="0.13" width="5.38" shape="392.31,243.50 392.31,243.36"/>
    </edge>
    <edge id=":35_0" function="internal">
        <lane id=":35_0_0" index="0" speed="13.89" length="0.13" width="5.38" shape="386.94,93.64 386.94,93.76"/>
        <lane id=":35_0_1" index="1" speed="13.89" length="0.13" width="5.38" shape="392.31,93.64 392.31,93.50"/>
    </edge>
    <edge id=":35_2" function="internal">
        <lane id=":35_2_0" index="0" speed="13.89" length="0.54" width="5.38" shape="403.05,92.97 403.06,93.64"/>
        <lane id=":35_2_1" index="1" speed="13.89" length="0.54" width="5.38" shape="397.68,93.23 397.69,93.64"/>
    </edge>
    <edge id=":36_0" function="internal">
        <lane id=":36_0_0" index="0" speed="13.89" length="0.13" width="5.38" shape="304.74,11.56 304.86,11.56"/>
        <lane id=":36_0_1" index="1" speed="13.89" length="0.13" width="5.38" shape="305.00,6.19 304.86,6.19"/>
    </edge>
    <edge id=":36_2" function="internal">
        <lane id=":36_2_0" index="0" speed="13.89" length="0.54" width="5.38" shape="304.87,-4.56 305.53,-4.55"/>
        <lane id=":36_2_1" index="1" speed="13.89" length="0.54" width="5.38" shape="304.86,0.81 305.27,0.82"/>
    </edge>
    <edge id=":37_0" function="internal">
        <lane id=":37_0_0" index="0" speed="13.89" length="0.13" width="5.38" shape="234.24,94.06 234.36,94.06"/>
        <lane id=":37_0_1" index="1" speed="13.89" length="0.13" width="5.38" shape="234.51,88.69 234.36,88.69"/>
    </edge>
    <edge id=":37_2" function="internal">
        <lane id=":37_2_0" index="0" speed="13.89" length="0.54" width="5.38" shape="234.36,77.94 235.03,77.95"/>
        <lane id=":37_2_1" index="1" speed="13.89" length="0.54" width="5.38" shape="234.36,83.31 234.77,83.32"/>
    </edge>
    <edge id=":38_0" function="internal">
        <lane id=":38_0_0" index="0" speed="13.89" length="0.13" width="5.38" shape="165.64,94.06 165.76,94.06"/>
        <lane id=":38_0_1" index="1" speed="13.89" length="0.13" width="5.38" shape="165.64,88.69 165.50,88.69"/>
    </edge>
    <edge id=":38_2" function="internal">
        <lane id=":38_2_0" index="0" speed="13.89" length="0.54" width="5.38" shape="164.97,77.95 165.64,77.94"/>
        <lane id=":38_2_1" index="1" speed="13.89" length="0.54" width="5.38" shape="165.23,83.32 165.64,83.31"/>
    </edge>
    <edge id=":39_0" function="internal">
        <lane id=":39_0_0" index="0" speed="13.89" length="0.54" width="5.38" shape="116.94,126.64 116.96,125.97"/>
        <lane id=":39_0_1" index="1" speed="13.89" length="0.54" width="5.38" shape="122.31,126.64 122.32,126.23"/>
    </edge>
    <edge id=":39_2" function="internal">
        <lane id=":39_2_0" index="0" speed="13.89" length="0.13" width="5.38" shape="133.06,126.76 133.06,126.64"/>
        <lane id=":39_2_1" index="1" speed="13.89" length="0.13" width="5.38" shape="127.69,126.50 127.69,126.64"/>
    </edge>
    <edge id=":40_0" function="internal">
        <lane id=":40_0_0" index="0" speed="13.89" length="0.54" width="5.38" shape="116.96,196.03 116.94,195.36"/>
        <lane id=":40_0_1" index="1" speed="13.89" length="0.54" width="5.38" shape="122.32,195.77 122.31,195.36"/>
    </edge>
    <edge id=":40_2" function="internal">
        <lane id=":40_2_0" index="0" speed="13.89" length="0.13" width="5.38" shape="133.06,195.36 133.06,195.24"/>
        <lane id=":40_2_1" index="1" speed="13.89" length="0.13" width="5.38" shape="127.69,195.36 127.69,195.50"/>
    </edge>
    <edge id=":41_0" function="internal">
        <lane id=":41_0_0" index="0" speed="13.89" length="0.54" width="5.38" shape="176.94,186.64 176.96,185.97"/>
        <lane id=":41_0_1" index="1" speed="13.89" length="0.54" width="5.38" shape="182.31,186.64 182.32,186.23"/>
    </edge>
    <edge id=":41_2" function="internal">
        <lane id=":41_2_0" index="0" speed="13.89" length="0.13" width="5.38" shape="193.06,186.76 193.06,186.64"/>
        <lane id=":41_2_1" index="1" speed="13.89" length="0.13" width="5.38" shape="187.69,186.50 187.69,186.64"/>
    </edge>
    <edge id=":42_0" function="internal">
        <lane id=":42_0_0" index="0" speed="13.89" length="0.13" width="5.38" shape="225.64,154.06 225.76,154.06"/>
        <lane id=":42_0_1" index="1" speed="13.89" length="0.13" width="5.38" shape="225.64,148.69 225.50,148.69"/>
    </edge>
    <edge id=":42_2" function="internal">
        <lane id=":42_2_0" index="0" speed="13.89" length="0.54" width="5.38" shape="224.97,137.95 225.64,137.94"/>
        <lane id=":42_2_1" index="1" speed="13.89" length="0.54" width="5.38" shape="225.23,143.32 225.64,143.31"/>
    </edge>
    <edge id=":43_0" function="internal">
        <lane id=":43_0_0" index="0" speed="13.89" length="0.54" width="5.38" shape="283.06,195.36 283.05,196.03"/>
        <lane id=":43_0_1" index="1" speed="13.89" length="0.54" width="5.38" shape="277.69,195.36 277.68,195.77"/>
    </edge>
    <edge id=":43_2" function="internal">
        <lane id=":43_2_0" index="0" speed="13.89" length="0.13" width="5.38" shape="266.94,195.24 266.94,195.36"/>
        <lane id=":43_2_1" index="1" speed="13.89" length="0.13" width="5.38" shape="272.31,195.50 272.31,195.36"/>
    </edge>
    <edge id=":44_0" function="internal">
        <lane id=":44_0_0" index="0" speed="13.89" length="0.54" width="5.38" shape="235.03,244.05 234.37,244.06"/>
        <lane id=":44_0_1" index="1" speed="13.89" length="0.54" width="5.38" shape="234.77,238.68 234.37,238.69"/>
    </edge>
    <edge id=":44_2" function="internal">
        <lane id=":44_2_0" index="0" speed="13.89" length="0.13" width="5.38" shape="234.37,227.94 234.24,227.94"/>
        <lane id=":44_2_1" index="1" speed="13.89" length="0.13" width="5.38" shape="234.37,233.31 234.51,233.31"/>
    </edge>
    <edge id=":45_0" function="internal">
        <lane id=":45_0_0" index="0" speed="13.89" length="0.13" width="5.38" shape="326.94,186.64 326.94,186.76"/>
        <lane id=":45_0_1" index="1" speed="13.89" length="0.13" width="5.38" shape="332.31,186.64 332.31,186.50"/>
    </edge>
    <edge id=":45_2" function="internal">
        <lane id=":45_2_0" index="0" speed="13.89" length="0.54" width="5.38" shape="343.05,185.97 343.06,186.64"/>
        <lane id=":45_2_1" index="1" speed="13.89" length="0.54" width="5.38" shape="337.68,186.23 337.69,186.64"/>
    </edge>
    <edge id=":46_0" function="internal">
        <lane id=":46_0_0" index="0" speed="13.89" length="0.13" width="5.38" shape="40.39,11.55 40.51,11.57"/>
        <lane id=":46_0_1" index="1" speed="13.89" length="0.13" width="5.38" shape="40.39,6.18 40.35,6.18 40.32,6.19 40.29,6.20 40.25,6.20"/>
    </edge>
    <edge id=":46_2" function="internal">
        <lane id=":46_2_0" index="0" speed="13.89" length="0.54" width="5.38" shape="39.72,-4.53 40.39,-4.57"/>
        <lane id=":46_2_1" index="1" speed="13.89" length="0.54" width="5.38" shape="39.98,0.83 40.39,0.80"/>
    </edge>
    <edge id=":47_0" function="internal">
        <lane id=":47_0_0" index="0" speed="13.89" length="0.54" width="5.38" shape="-8.06,44.14 -8.04,43.47"/>
        <lane id=":47_0_1" index="1" speed="13.89" length="0.54" width="5.38" shape="-2.69,44.14 -2.68,43.73"/>
    </edge>
    <edge id=":47_2" function="internal">
        <lane id=":47_2_0" index="0" speed="13.89" length="0.13" width="5.38" shape="8.06,44.26 8.06,44.14"/>
        <lane id=":47_2_1" index="1" speed="13.89" length="0.13" width="5.38" shape="2.69,44.00 2.69,44.14"/>
    </edge>
    <edge id=":48_0" function="internal">
        <lane id=":48_0_0" index="0" speed="13.89" length="58.17" width="5.38" shape="8.06,381.50 40.11,430.05"/>
        <lane id=":48_0_1" index="1" speed="13.89" length="57.31" width="5.38" shape="2.69,381.50 40.37,424.68"/>
    </edge>
    <edge id=":48_2" function="internal">
        <lane id=":48_2_0" index="0" speed="13.89" length="58.73" width="5.38" shape="40.90,413.95 -8.06,381.50"/>
        <lane id=":48_2_1" index="1" speed="13.89" length="57.50" width="5.38" shape="40.63,419.32 -2.69,381.50"/>
    </edge>
    <edge id=":49_0" function="internal">
        <lane id=":49_0_0" index="0" speed="13.89" length="58.18" width="5.38" shape="-8.05,381.90 40.50,413.95"/>
        <lane id=":49_0_1" index="1" speed="13.89" length="57.32" width="5.38" shape="-2.68,381.63 40.50,419.32"/>
    </edge>
    <edge id=":49_2" function="internal">
        <lane id=":49_2_0" index="0" speed="13.89" length="58.74" width="5.38" shape="40.50,430.07 8.05,381.10"/>
        <lane id=":49_2_1" index="1" speed="13.89" length="57.51" width="5.38" shape="40.50,424.70 2.69,381.37"/>
    </edge>

    <edge id="-0" from="26" to="40" priority="-1" shape="165.50,236.00 161.53,235.80 157.60,235.22 153.74,234.26 150.00,232.92 146.41,231.22 143.00,229.17 139.81,226.81 136.86,224.14 134.19,221.19 131.83,218.00 129.78,214.59 128.08,211.00 126.75,207.26 125.78,203.40 125.20,199.47 125.00,195.50">
        <lane id="-0_0" index="0" speed="13.89" length="80.40" width="5.38" shape="174.25,244.50 160.74,243.84 156.03,243.14 151.40,241.98 146.91,240.37 142.60,238.34 138.52,235.89 134.69,233.05 131.16,229.85 127.95,226.31 125.11,222.49 122.66,218.40 120.63,214.09 119.02,209.60 117.86,204.98 117.16,200.26 116.96,196.03"/>
        <lane id="-0_1" index="1" speed="13.89" length="80.40" width="5.38" shape="174.25,239.12 161.27,238.48 157.08,237.86 152.96,236.83 148.97,235.40 145.14,233.59 141.51,231.41 138.10,228.89 134.96,226.04 132.11,222.90 129.59,219.50 127.41,215.86 125.60,212.03 124.17,208.04 123.14,203.93 122.52,199.73 122.32,195.77"/>
    </edge>
    <edge id="-1" from="39" to="40" priority="-1">
        <lane id="-1_0" index="0" speed="13.89" length="68.73" width="5.38" shape="133.06,126.64 133.06,195.36"/>
        <lane id="-1_1" index="1" speed="13.89" length="68.73" width="5.38" shape="127.69,126.64 127.69,195.36"/>
    </edge>
    <edge id="-10" from="25" to="45" priority="-1" shape="294.50,146.00 298.47,146.19 302.40,146.78 306.26,147.74 310.00,149.08 313.59,150.78 317.00,152.83 320.19,155.19 323.14,157.86 325.81,160.81 328.18,164.00 330.22,167.41 331.92,171.00 333.26,174.74 334.22,178.60 334.81,182.53 335.00,186.50">
        <lane id="-10_0" index="0" speed="13.89" length="80.40" width="5.38" shape="285.75,137.50 299.26,138.16 303.98,138.86 308.60,140.02 313.09,141.62 317.40,143.66 321.49,146.11 325.31,148.95 328.85,152.15 332.05,155.69 334.89,159.51 337.34,163.60 339.38,167.91 340.98,172.40 342.14,177.02 342.84,181.74 343.05,185.97"/>
        <lane id="-10_1" index="1" speed="13.89" length="80.40" width="5.38" shape="285.75,142.88 298.73,143.52 302.93,144.14 307.04,145.17 311.03,146.60 314.86,148.41 318.50,150.59 321.90,153.11 325.04,155.96 327.89,159.10 330.41,162.50 332.59,166.14 334.40,169.97 335.83,173.96 336.86,178.07 337.48,182.27 337.68,186.23"/>
    </edge>
    <edge id="-11" from="36" to="35" priority="-1" shape="305.00,3.50 313.82,3.93 322.56,5.23 331.13,7.38 339.44,10.35 347.43,14.13 355.00,18.67 362.10,23.93 368.64,29.86 374.57,36.40 379.83,43.50 384.37,51.07 388.15,59.06 391.13,67.37 393.27,75.94 394.57,84.68 395.00,93.50">
        <lane id="-11_0" index="0" speed="13.89" length="148.96" width="5.38" shape="305.53,-4.55 314.61,-4.10 324.13,-2.69 333.47,-0.35 342.53,2.89 351.23,7.01 359.49,11.96 367.22,17.69 374.35,24.15 380.81,31.28 386.55,39.01 391.49,47.27 395.61,55.97 398.85,65.03 401.19,74.37 402.60,83.89 403.05,92.97"/>