<?xml version="1.0" encoding="UTF-8"?>

<!-- generated on 2024-06-05 21:52:25 by Eclipse SUMO duarouter Version 1.12.0
<configuration xmlns:xsi="http://www.w3.org/2001/XMLSchema-instance" xsi:noNamespaceSchemaLocation="http://sumo.dlr.de/xsd/duarouterConfiguration.xsd">

    <input>
        <net-file value="/home/l01158790/Downloads/worlds/city_traffic_2024_02_net/sumo.net.xml"/>
        <route-files value="/home/l01158790/Downloads/worlds/city_traffic_2024_02_net/sumo.trip.xml"/>
    </input>

    <output>
        <output-file value="/home/l01158790/Downloads/worlds/city_traffic_2024_02_net/sumo.rou.xml"/>
        <alternatives-output value="/home/l01158790/Downloads/worlds/city_traffic_2024_02_net/sumo.rou.alt.xml"/>
    </output>

    <report>
        <ignore-errors value="true"/>
    </report>

</configuration>
-->

<routes xmlns:xsi="http://www.w3.org/2001/XMLSchema-instance" xsi:noNamespaceSchemaLocation="http://sumo.dlr.de/xsd/routes_file.xsd">
    <vehicle id="70" depart="70.00">
        <route edges="-8 9 -10 17 -17 10"/>
    </vehicle>
    <vehicle id="71" depart="71.00">
        <route edges="-21 -22 -24 23 -8 9 -10 17 16 -19 15 27"/>
    </vehicle>
    <vehicle id="72" depart="72.00">
        <route edges="-5 -6 -7 24 22 21 -18 -12 16 -19"/>
    </vehicle>
    <vehicle id="73" depart="73.00">
        <route edges="10 4 -3 2"/>
    </vehicle>
    <vehicle id="74" depart="74.00">
        <route edges="-19 15 27 26 -25 -13 -11 -14 -20 12 18 -21 -22 -24"/>
    </vehicle>
    <vehicle id="75" depart="75.00">
        <route edges="9 -10 17 16"/>
    </vehicle>
    <vehicle id="76" depart="76.00">
        <route edges="-6 -7 23 -8 9 4 -3 2 -1 0"/>
    </vehicle>
    <vehicle id="77" depart="77.00">
        <route edges="-14 -20 12 18 -21 -22 -24 -0 1 -2"/>
    </vehicle>
    <vehicle id="78" depart="78.00">
        <route edges="-25 -13 -11 -14 -20 12"/>
    </vehicle>
    <vehicle id="79" depart="79.00">
        <route edges="-2"/>
    </vehicle>
    <vehicle id="80" depart="80.00">
        <route edges="-11 -14 -20 16 -19 15"/>
    </vehicle>
    <vehicle id="81" depart="81.00">
        <route edges="-2 3 -4 4"/>
    </vehicle>
    <vehicle id="82" depart="82.00">
        <route edges="27 26 -25 -13 -11"/>
    </vehicle>
    <vehicle id="83" depart="83.00">
        <route edges="-20 -17 10 -10 17"/>
    </vehicle>
    <vehicle id="84" depart="84.00">
        <route edges="-19 15 27 26 -25 -13 -11 -14 -20 20 14 11 13 25 -26 -27 -15"/>
    </vehicle>
    <vehicle id="85" depart="85.00">
        <route edges="6 5 -10 17 20 14 11"/>
    </vehicle>
    <vehicle id="86" depart="86.00">
        <route edges="-8 9 -9 8 -23 24 22"/>
    </vehicle>
    <vehicle id="87" depart="87.00">
        <route edges="24 22 21 -18"/>
    </vehicle>
    <vehicle id="88" depart="88.00">
        <route edges="-13 -11 -14 -20 -17 10 -5 -6"/>
    </vehicle>
    <vehicle id="89" depart="89.00">
        <route edges="-5 -6 -7 23 -8"/>
    </vehicle>
    <vehicle id="90" depart="90.00">
        <route edges="2 -1 0 23 -8 9 -10 17"/>
    </vehicle>
    <vehicle id="91" depart="91.00">
        <route edges="9 -10 17 16 -19 15 27 26 -25 -13"/>
    </vehicle>
    <vehicle id="92" depart="92.00">
        <route edges="-4 -10 17 20 14 11 13 25 -26"/>
    </vehicle>
    <vehicle id="93" depart="93.00">
        <route edges="27 26 -25 -13 -11 -14 -20"/>
    </vehicle>
    <vehicle id="94" depart="94.00">
        <route edges="-18 -12 -17 10 -5 -6 -7"/>
    </vehicle>
    <vehicle id="95" depart="95.00">
        <route edges="-5 -6 -7 24 22 21 -18 -12 12 18 -21 -22"/>
    </vehicle>
    <vehicle id="96" depart="96.00">
        <route edges="-20 -17 10 -9 8 -23 7 6 5"/>
    </vehicle>
    <vehicle id="97" depart="97.00">
        <route edges="-6 -7 24 22 21 -18 -12 16 -19 15 27"/>
    </vehicle>
    <vehicle id="98" depart="98.00">
        <route edges="10 -10"/>
    </vehicle>
    <vehicle id="99" depart="99.00">
        <route edges="9 -10 17 20 14 11 13 25"/>
    </vehicle>
</routes>
