<?xml version="1.0" encoding="UTF-8"?>

<!-- generated on 2024-06-05 21:52:25 by Eclipse SUMO duarouter Version 1.12.0
<configuration xmlns:xsi="http://www.w3.org/2001/XMLSchema-instance" xsi:noNamespaceSchemaLocation="http://sumo.dlr.de/xsd/duarouterConfiguration.xsd">

    <input>
        <net-file value="/home/l01158790/Downloads/worlds/city_traffic_2024_02_net/sumo.net.xml"/>
        <route-files value="/home/l01158790/Downloads/worlds/city_traffic_2024_02_net/sumo.trip.xml"/>
    </input>

    <output>
        <output-file value="/home/l01158790/Downloads/worlds/city_traffic_2024_02_net/sumo.rou.xml"/>
        <alternatives-output value="/home/l01158790/Downloads/worlds/city_traffic_2024_02_net/sumo.rou.alt.xml"/>
    </output>

    <report>
        <ignore-errors value="true"/>
    </report>

</configuration>
-->

<routes xmlns:xsi="http://www.w3.org/2001/XMLSchema-instance" xsi:noNamespaceSchemaLocation="http://sumo.dlr.de/xsd/routes_file.xsd">
    <vehicle id="25" depart="25.00">
        <route edges="-27 -15 19 -16 16 -19"/>
    </vehicle>
    <vehicle id="26" depart="26.00">
        <route edges="-21 -22 -24 7 6"/>
    </vehicle>
    <vehicle id="27" depart="27.00">
        <route edges="16 -19 15 27 26 -25 -13 -11 -14 -20 20 14"/>
    </vehicle>
    <vehicle id="28" depart="28.00">
        <route edges="-17 10 4 -3 2"/>
    </vehicle>
    <vehicle id="29" depart="29.00">
        <route edges="-17 10 4 -3"/>
    </vehicle>
    <vehicle id="30" depart="30.00">
        <route edges="9 -10 17 16 -19 15"/>
    </vehicle>
    <vehicle id="31" depart="31.00">
        <route edges="11 13 25 -26 -27 -15 19 -16 12 18"/>
    </vehicle>
    <vehicle id="32" depart="32.00">
        <route edges="26 -25 -13 -11 -14 -20 -17 10 -9 8 -23 24 22"/>
    </vehicle>
    <vehicle id="33" depart="33.00">
        <route edges="-2 3 -4 4 -3 2 -1"/>
    </vehicle>
    <vehicle id="34" depart="34.00">
        <route edges="-24 24 22 21 -18 -12 12 18 -21"/>
    </vehicle>
    <vehicle id="35" depart="35.00">
        <route edges="-19 15 27 26 -25 -13 -11 -14 -20 -17 10 -9 8 -23 7 6"/>
    </vehicle>
    <vehicle id="36" depart="36.00">
        <route edges="3 -4 -10 17 12 18 -21 -22 -24"/>
    </vehicle>
    <vehicle id="37" depart="37.00">
        <route edges="16 -19 15 27 26 -25 -13 -11 -14 -20 12 18 -21 -22 -24 -0 1 -2 3 -4"/>
    </vehicle>
    <vehicle id="38" depart="38.00">
        <route edges="5 -5 -6 -7"/>
    </vehicle>
    <vehicle id="39" depart="39.00">
        <route edges="-21 -22 -24 23 -8 9 -10 17 16 -19 15 27 26 -25 -13 -11 -14 -20"/>
    </vehicle>
    <vehicle id="40" depart="40.00">
        <route edges="11 13 25 -26 -27 -15 19 -16 12 18 -21"/>
    </vehicle>
    <vehicle id="41" depart="41.00">
        <route edges="12 18 -21 -22 -24 23 -8 9 4"/>
    </vehicle>
    <vehicle id="42" depart="42.00">
        <route edges="-4 -5 -6 -7 -0 1 -2"/>
    </vehicle>
    <vehicle id="43" depart="43.00">
        <route edges="9 4 -3 2 -1 0"/>
    </vehicle>
    <vehicle id="44" depart="44.00">
        <route edges="-13 -11 -14 -20 -17 10 -10"/>
    </vehicle>
    <vehicle id="45" depart="45.00">
        <route edges="-14 -20 16 -19 15"/>
    </vehicle>
    <vehicle id="46" depart="46.00">
        <route edges="23 -8 9 -5"/>
    </vehicle>
    <vehicle id="47" depart="47.00">
        <route edges="-11 -14 -20 -17 10 4 -3"/>
    </vehicle>
    <vehicle id="48" depart="48.00">
        <route edges="9 -5 -6 -7 -0 1"/>
    </vehicle>
    <vehicle id="49" depart="49.00">
        <route edges="8 -23 24 22 21 -18 -12 16 -19 15 27"/>
    </vehicle>
    <vehicle id="50" depart="50.00">
        <route edges="-0 1 -2 3 -4 4 -3 2"/>
    </vehicle>
    <vehicle id="51" depart="51.00">
        <route edges="18 -21 -22 -24 24 22 21 -18 -12 -17 10"/>
    </vehicle>
    <vehicle id="52" depart="52.00">
        <route edges="-21 -22 -24 23 -8 9 -10 17 16 -19 15"/>
    </vehicle>
    <vehicle id="53" depart="53.00">
        <route edges="-14 -20 -17 10 -5 -6"/>
    </vehicle>
    <vehicle id="54" depart="54.00">
        <route edges="-7 7"/>
    </vehicle>
</routes>
